Version 4.1
SHEET 1 1544 752
WIRE 1040 -144 752 -144
WIRE 512 -48 192 -48
WIRE 752 -16 752 -144
WIRE 80 0 80 -16
WIRE 224 16 208 16
WIRE 480 16 448 16
WIRE 480 32 480 16
WIRE 224 80 80 80
WIRE 512 80 512 -48
WIRE 512 80 448 80
WIRE 1376 112 976 112
WIRE 192 144 192 -48
WIRE 224 144 192 144
WIRE 544 144 544 128
WIRE 544 144 448 144
WIRE 752 144 752 48
WIRE 752 144 544 144
WIRE 1200 144 976 144
WIRE 192 160 192 144
WIRE 192 160 80 160
WIRE 1024 176 976 176
WIRE 224 208 176 208
WIRE 464 208 448 208
WIRE 1040 208 1040 -144
WIRE 1040 208 976 208
WIRE 80 224 80 160
WIRE 176 224 176 208
WIRE 1024 224 1024 176
WIRE 1040 224 1024 224
WIRE 1200 224 1200 144
WIRE 1216 224 1200 224
WIRE 1376 224 1376 112
WIRE 1392 224 1376 224
WIRE 1024 240 1024 224
WIRE 1200 240 1200 224
WIRE 1376 240 1376 224
WIRE 80 304 80 288
WIRE 176 304 176 288
FLAG 704 416 0
FLAG 704 336 +VCC
FLAG 80 304 0
FLAG 176 304 0
FLAG 544 128 CLK
FLAG 208 16 +VCC
FLAG 464 208 +VCC
FLAG 80 -16 +VCC
FLAG 608 336 VDD
FLAG 608 416 0
FLAG 480 32 0
FLAG 1024 512 0
FLAG 1200 512 0
FLAG 1376 512 0
FLAG 1040 224 O0
FLAG 1216 224 O1
FLAG 1392 224 O2
SYMBOL Misc\\NE555 336 112 M0
SYMATTR InstName U1
SYMBOL voltage 704 320 M0
WINDOW 123 0 0 Left 0
WINDOW 39 0 0 Left 0
SYMATTR InstName V1
SYMATTR Value 15
SYMBOL cap 96 224 M0
SYMATTR InstName C1
SYMATTR Value 10µ
SYMBOL cap 192 224 M0
SYMATTR InstName C2
SYMATTR Value 10n
SYMBOL res 96 64 M0
SYMATTR InstName R2
SYMATTR Value 68k
SYMATTR SpiceLine tol=0
SYMBOL res 96 -16 M0
SYMATTR InstName R1
SYMATTR Value 10k
SYMATTR SpiceLine tol=0
SYMBOL CD4xxx\\cd4017b 864 -80 R0
SYMATTR InstName U2
SYMBOL voltage 608 320 M0
WINDOW 123 0 0 Left 0
WINDOW 39 0 0 Left 0
SYMATTR InstName V2
SYMATTR Value 15
SYMBOL diode 1008 368 R0
WINDOW 3 66 14 Left 2
SYMATTR InstName D2
SYMATTR Value NSCW100
SYMATTR Description Diode
SYMATTR Type diode
SYMBOL res 1008 416 R0
SYMATTR InstName R3
SYMATTR Value 430
SYMBOL diode 1008 304 R0
WINDOW 3 67 14 Left 2
SYMATTR InstName D1
SYMATTR Value NSCW100
SYMATTR Description Diode
SYMATTR Type diode
SYMBOL diode 1008 240 R0
WINDOW 3 59 14 Left 2
SYMATTR InstName D3
SYMATTR Value NSCW100
SYMATTR Description Diode
SYMATTR Type diode
SYMBOL diode 1184 368 R0
WINDOW 3 66 14 Left 2
SYMATTR InstName D4
SYMATTR Value NSCW100
SYMATTR Description Diode
SYMATTR Type diode
SYMBOL res 1184 416 R0
SYMATTR InstName R4
SYMATTR Value 430
SYMBOL diode 1184 304 R0
WINDOW 3 67 14 Left 2
SYMATTR InstName D5
SYMATTR Value NSCW100
SYMATTR Description Diode
SYMATTR Type diode
SYMBOL diode 1184 240 R0
WINDOW 3 59 14 Left 2
SYMATTR InstName D6
SYMATTR Value NSCW100
SYMATTR Description Diode
SYMATTR Type diode
SYMBOL diode 1360 368 R0
WINDOW 3 66 14 Left 2
SYMATTR InstName D7
SYMATTR Value NSCW100
SYMATTR Description Diode
SYMATTR Type diode
SYMBOL res 1360 416 R0
SYMATTR InstName R5
SYMATTR Value 430
SYMBOL diode 1360 304 R0
WINDOW 3 67 14 Left 2
SYMATTR InstName D8
SYMATTR Value NSCW100
SYMATTR Description Diode
SYMATTR Type diode
SYMBOL diode 1360 240 R0
WINDOW 3 59 14 Left 2
SYMATTR InstName D9
SYMATTR Value NSCW100
SYMATTR Description Diode
SYMATTR Type diode
TEXT 480 312 Right 2 !.tran 10
