Version 4.1
SHEET 1 880 680
WIRE 48 80 48 64
WIRE 48 80 -176 80
WIRE 128 80 48 80
WIRE 256 96 240 96
WIRE 48 112 -48 112
WIRE 128 112 48 112
WIRE -176 128 -176 80
WIRE -48 128 -48 112
WIRE 48 128 48 112
FLAG -176 208 0
FLAG -48 208 0
FLAG 256 96 WY
FLAG 48 64 B
FLAG 48 128 A
SYMBOL CD4xxx\\cd4011b 176 32 R0
SYMATTR InstName U1
SYMBOL voltage -176 112 M0
WINDOW 3 -114 133 Left 2
WINDOW 123 0 0 Left 0
WINDOW 39 0 0 Left 0
SYMATTR InstName B
SYMATTR Value PULSE(0 5 0 100n 100n 2m 4m)
SYMBOL voltage -48 112 R0
WINDOW 123 0 0 Left 0
WINDOW 39 0 0 Left 0
SYMATTR InstName A
SYMATTR Value PULSE(0 5 0 100n 100n 1m 2m)
TEXT 104 248 Left 2 !.inc CD4000.lib
TEXT 96 272 Left 2 !.tran 5m
