Version 4.1
SHEET 1 880 680
WIRE 64 112 64 96
WIRE 240 112 240 96
WIRE 64 208 64 192
WIRE 240 208 240 192
FLAG 240 208 0
FLAG 64 208 0
FLAG 64 96 A
FLAG 240 96 B
SYMBOL voltage 64 96 R0
WINDOW 123 0 0 Left 0
WINDOW 39 0 0 Left 0
SYMATTR InstName V1
SYMATTR Value SINE(0 1 1k)
SYMBOL voltage 240 96 R0
WINDOW 123 0 0 Left 0
WINDOW 39 0 0 Left 0
SYMATTR InstName V2
SYMATTR Value SINE(0 100m 10k)
TEXT 48 240 Left 2 !.tran 10m
TEXT 328 128 Left 2 ;prawy na wykres -> view -> FFT
